&NAMDYNA
  LPC_FULL=.TRUE.,
  LPC_CHEAP=.FALSE.,
/
