&NAMAFN
  GFP_CLSH%CLNAME='SURFACCGRELE',
  GFP_XLSH%CLNAME='SURFINSGRELE',
/
&NAMCFU
  LFPLSH=.TRUE.,
/
&NAMGFL
  YH_NL%LGP=.TRUE.,
  YH_NL%NREQIN=0,
  YH_NL%NCOUPLING=-1,
  YH_NL%REFVALC=0.,
  YH_NL%LQM=.TRUE.,
  YH_NL%LSLHD=.TRUE.,
/
&NAMPARAR
  CMICRO='ICE4',
/
&NAMXFU
  LXPLSH=.TRUE.,
/
&NAMPARAR
  LCONVHG=.TRUE.,   
/

