&NAEPHY
  LSLPHY=.TRUE.,
/
&NAMGFL
  YQ_NL%LPHY=.TRUE.,
/
