&NAMCT0
  LNHEE=.FALSE.,
  LNHQE=.TRUE.,
/
&NAMDYN
  NITERHELM=1,
/
&NAMDYNA
  NDLNPR=2
/
