&NAMSIMPHL
  LSIMPH=.TRUE.,
/
&NAMPHY
  LMPHYS=.FALSE.,
/

