&NAMSIMPHL
   LCLOUDS=.FALSE.,
   LCVRASP=.FALSE.,
   LGWDSP=.TRUE.,
   LGWDSPNL=.FALSE.,
   LRAYSP=.FALSE.,
   LRRMESSP=.TRUE.,
   LSIMPH=.TRUE.,
   LSMOOTHA=.FALSE.,
   LSMOOTHB=.FALSE.,
   LSMOOTHD=.FALSE.,
   LSTRASP=.FALSE.,
   LTRAJPS=.FALSE.,
   LTRAJPST=.FALSE.,
   LVDIFSP=.TRUE.,
   LVDIFSPNL=.FALSE.,
   LSTRASPN=.TRUE.,
   RHCRIT1S=0.7,
   RHCRIT2S=0.7,
/
&NAMPHY
  LMPHYS=.TRUE.,
/

