&NAMSIMPHL
  LSIMPH=.TRUE.,
  LRRMESSP=.TRUE.,
  LTRAJPS=.FALSE.,
  LTRAJPST=.FALSE.,
/
&NAMPHY
  LMPHYS=.FALSE.,
/

