&NAMDYNA
  LSLHD_W=.TRUE.,
  LSLHD_T=.TRUE.,
  LSLHD_STATIC=.FALSE.,
/
