&NAMARG
  LSLAG=.FALSE.,
/
&NAMCT0
  LTWOTL=.FALSE.,
/
&NAMCVER
  LVERTFE=.FALSE.,
  NVFE_TYPE=0,
/
&NAMDYN
  LADVF=-,
  BETADT=1.,
  NCOMP_CVGQ=0,
  RCMSLP0=-,
/
&NAMDYNA
  LSETTLS=-,
  LSETTLST=-,
  LAPRXPK=-,
  NDLNPR=-,
  LSLHD_W=.FALSE.,
  LSLHD_T=.FALSE.,
  LSLHD_SPD=.FALSE.,
  LSLHD_SVD=.FALSE.,
  LSLHD_GFL=.FALSE.,
  LSLHD_OLD=.FALSE.,
  LPC_FULL=.FALSE.,
/
&NAMRIP
  CSTOP='h1',
/

